Git is a good haha heihei version control system.
Git is haha free software.
hehehe.
dadada.
new line.
这是dev分支添加的内容
