Git is a good haha heihei version control system.
Git is haha free software.
hehehe.
dadada.
new line.
<<<<<<< HEAD
这是dev分支添加bug的内容
=======
这是dev分支添加的内容
这是我在dev分支上面进行的修改，现在要去处理其他的问题，重新创建分支，为了保留dev分支上的工作进度，我即将使用命令git stash
>>>>>>> dev
